
*** ChampSim Multicore Out-of-Order Simulator ***

Warmup Instructions: 30000000
Simulation Instructions: 30000000
Number of CPUs: 1
Off-chip DRAM Size: 4 GiB Channels: 1 Width: 64-bit Data Rate: 3200 MT/s

VirtualMemory physical capacity: 8588881920 num_ppages: 2096895
VirtualMemory page size: 4096 log2_page_size: 12

CPU 0 runs ../traces/sssp-14.trace.gz
CPU 0 TAGE branch predictor
Basic BTB sets: 1024 ways: 8 indirect buffer size: 4096 RAS size: 64
Heartbeat CPU 0 instructions: 10000002 cycles: 2979337 heartbeat IPC: 3.35645 cumulative IPC: 3.35645 (Simulation time: 0 hr 0 min 18 sec) 
Heartbeat CPU 0 instructions: 20000003 cycles: 6324415 heartbeat IPC: 2.98947 cumulative IPC: 3.16235 (Simulation time: 0 hr 0 min 40 sec) 
Heartbeat CPU 0 instructions: 30000004 cycles: 9852458 heartbeat IPC: 2.83443 cumulative IPC: 3.04493 (Simulation time: 0 hr 1 min 6 sec) 

Warmup complete CPU 0 instructions: 30000004 cycles: 9852458 (Simulation time: 0 hr 1 min 6 sec) 

Heartbeat CPU 0 instructions: 40000000 cycles: 43423263 heartbeat IPC: 0.297878 cumulative IPC: 0.297878 (Simulation time: 0 hr 1 min 46 sec) 
Heartbeat CPU 0 instructions: 50000001 cycles: 74279008 heartbeat IPC: 0.324089 cumulative IPC: 0.310431 (Simulation time: 0 hr 2 min 27 sec) 
Heartbeat CPU 0 instructions: 60000004 cycles: 105315678 heartbeat IPC: 0.3222 cumulative IPC: 0.314257 (Simulation time: 0 hr 3 min 5 sec) 
Finished CPU 0 instructions: 30000000 cycles: 95463220 cumulative IPC: 0.314257 (Simulation time: 0 hr 3 min 5 sec) 

ChampSim completed all CPUs

Region of Interest Statistics

CPU 0 cumulative IPC: 0.314257 instructions: 30000000 cycles: 95463220
cpu0_DTLB TOTAL     ACCESS:    7576474  HIT:    7015494  MISS:     560980
cpu0_DTLB LOAD      ACCESS:    7138048  HIT:    6745661  MISS:     392387
cpu0_DTLB RFO       ACCESS:     438426  HIT:     269833  MISS:     168593
cpu0_DTLB PREFETCH  ACCESS:          0  HIT:          0  MISS:          0
cpu0_DTLB WRITEBACK ACCESS:          0  HIT:          0  MISS:          0
cpu0_DTLB TRANSLATION ACCESS:          0  HIT:          0  MISS:          0
cpu0_DTLB PREFETCH  REQUESTED:          0  ISSUED:          0  USEFUL:          0  USELESS:          0
cpu0_DTLB AVERAGE MISS LATENCY: 11.2753 cycles
cpu0_ITLB TOTAL     ACCESS:    2851963  HIT:    2851963  MISS:          0
cpu0_ITLB LOAD      ACCESS:    2851963  HIT:    2851963  MISS:          0
cpu0_ITLB RFO       ACCESS:          0  HIT:          0  MISS:          0
cpu0_ITLB PREFETCH  ACCESS:          0  HIT:          0  MISS:          0
cpu0_ITLB WRITEBACK ACCESS:          0  HIT:          0  MISS:          0
cpu0_ITLB TRANSLATION ACCESS:          0  HIT:          0  MISS:          0
cpu0_ITLB PREFETCH  REQUESTED:          0  ISSUED:          0  USEFUL:          0  USELESS:          0
cpu0_ITLB AVERAGE MISS LATENCY: -nan cycles
cpu0_L1I TOTAL     ACCESS:       9657  HIT:       9657  MISS:          0
cpu0_L1I LOAD      ACCESS:       9657  HIT:       9657  MISS:          0
cpu0_L1I RFO       ACCESS:          0  HIT:          0  MISS:          0
cpu0_L1I PREFETCH  ACCESS:          0  HIT:          0  MISS:          0
cpu0_L1I WRITEBACK ACCESS:          0  HIT:          0  MISS:          0
cpu0_L1I TRANSLATION ACCESS:          0  HIT:          0  MISS:          0
cpu0_L1I PREFETCH  REQUESTED:          0  ISSUED:          0  USEFUL:          0  USELESS:          0
cpu0_L1I AVERAGE MISS LATENCY: -nan cycles
cpu0_STLB TOTAL     ACCESS:     560980  HIT:     553969  MISS:       7011
cpu0_STLB LOAD      ACCESS:     392387  HIT:     386411  MISS:       5976
cpu0_STLB RFO       ACCESS:     168593  HIT:     167558  MISS:       1035
cpu0_STLB PREFETCH  ACCESS:          0  HIT:          0  MISS:          0
cpu0_STLB WRITEBACK ACCESS:          0  HIT:          0  MISS:          0
cpu0_STLB TRANSLATION ACCESS:          0  HIT:          0  MISS:          0
cpu0_STLB PREFETCH  REQUESTED:          0  ISSUED:          0  USEFUL:          0  USELESS:          0
cpu0_STLB AVERAGE MISS LATENCY: 174.205 cycles
cpu0_L1D TOTAL     ACCESS:    6511420  HIT:    4965264  MISS:    1546156
cpu0_L1D LOAD      ACCESS:    5855283  HIT:    4436738  MISS:    1418545
cpu0_L1D RFO       ACCESS:     649163  HIT:     524101  MISS:     125062
cpu0_L1D PREFETCH  ACCESS:          0  HIT:          0  MISS:          0
cpu0_L1D WRITEBACK ACCESS:          0  HIT:          0  MISS:          0
cpu0_L1D TRANSLATION ACCESS:       6974  HIT:       4425  MISS:       2549
cpu0_L1D PREFETCH  REQUESTED:          0  ISSUED:          0  USEFUL:          0  USELESS:          0
cpu0_L1D AVERAGE MISS LATENCY: 111.105 cycles
cpu0_L2C TOTAL     ACCESS:    1921409  HIT:     729676  MISS:    1191733
cpu0_L2C LOAD      ACCESS:    1418541  HIT:     267249  MISS:    1151292
cpu0_L2C RFO       ACCESS:     125059  HIT:      86089  MISS:      38970
cpu0_L2C PREFETCH  ACCESS:          0  HIT:          0  MISS:          0
cpu0_L2C WRITEBACK ACCESS:     375260  HIT:     374378  MISS:        882
cpu0_L2C TRANSLATION ACCESS:       2549  HIT:       1960  MISS:        589
cpu0_L2C PREFETCH  REQUESTED:          0  ISSUED:          0  USEFUL:          0  USELESS:          0
cpu0_L2C AVERAGE MISS LATENCY: 129.529 cycles
LLC TOTAL     ACCESS:    1436177  HIT:     781561  MISS:     654616
LLC LOAD      ACCESS:    1151291  HIT:     525301  MISS:     625990
LLC RFO       ACCESS:      38970  HIT:      11977  MISS:      26993
LLC PREFETCH  ACCESS:          0  HIT:          0  MISS:          0
LLC WRITEBACK ACCESS:     245327  HIT:     243949  MISS:       1378
LLC TRANSLATION ACCESS:        589  HIT:        334  MISS:        255
LLC PREFETCH  REQUESTED:          0  ISSUED:          0  USEFUL:          0  USELESS:          0
LLC AVERAGE MISS LATENCY: 197.593 cycles

DRAM Statistics
 CHANNEL 0
 RQ ROW_BUFFER_HIT:      51646  ROW_BUFFER_MISS:     601288
 DBUS AVG_CONGESTED_CYCLE:    3.93983
 WQ ROW_BUFFER_HIT:      60311  ROW_BUFFER_MISS:     149523  FULL:          0


CPU 0 Branch Prediction Accuracy: 92.2428% MPKI: 11.4469 Average ROB Occupancy at Mispredict: 60.724
Branch type MPKI
BRANCH_DIRECT_JUMP: 6.66667e-05
BRANCH_INDIRECT: 0
BRANCH_CONDITIONAL: 11.4468
BRANCH_DIRECT_CALL: 0
BRANCH_INDIRECT_CALL: 0
BRANCH_RETURN: 0

