
*** ChampSim Multicore Out-of-Order Simulator ***

Warmup Instructions: 30000000
Simulation Instructions: 30000000
Number of CPUs: 1
Off-chip DRAM Size: 4 GiB Channels: 1 Width: 64-bit Data Rate: 3200 MT/s

VirtualMemory physical capacity: 8588881920 num_ppages: 2096895
VirtualMemory page size: 4096 log2_page_size: 12

CPU 0 runs ../traces/sssp-14.trace.gz
CPU 0 TAGE branch predictor
Basic BTB sets: 1024 ways: 8 indirect buffer size: 4096 RAS size: 64
Heartbeat CPU 0 instructions: 10000002 cycles: 2979344 heartbeat IPC: 3.35644 cumulative IPC: 3.35644 (Simulation time: 0 hr 0 min 21 sec) 
Heartbeat CPU 0 instructions: 20000003 cycles: 6324422 heartbeat IPC: 2.98947 cumulative IPC: 3.16234 (Simulation time: 0 hr 0 min 47 sec) 
Heartbeat CPU 0 instructions: 30000004 cycles: 9852465 heartbeat IPC: 2.83443 cumulative IPC: 3.04492 (Simulation time: 0 hr 1 min 14 sec) 

Warmup complete CPU 0 instructions: 30000004 cycles: 9852465 (Simulation time: 0 hr 1 min 14 sec) 

Heartbeat CPU 0 instructions: 40000000 cycles: 43426713 heartbeat IPC: 0.297847 cumulative IPC: 0.297847 (Simulation time: 0 hr 1 min 54 sec) 
Heartbeat CPU 0 instructions: 50000001 cycles: 74278113 heartbeat IPC: 0.324134 cumulative IPC: 0.310435 (Simulation time: 0 hr 2 min 34 sec) 
Heartbeat CPU 0 instructions: 60000004 cycles: 105320013 heartbeat IPC: 0.322145 cumulative IPC: 0.314243 (Simulation time: 0 hr 3 min 12 sec) 
Finished CPU 0 instructions: 30000000 cycles: 95467548 cumulative IPC: 0.314243 (Simulation time: 0 hr 3 min 12 sec) 

ChampSim completed all CPUs

Region of Interest Statistics

CPU 0 cumulative IPC: 0.314243 instructions: 30000000 cycles: 95467548
cpu0_DTLB TOTAL     ACCESS:    7575895  HIT:    7014935  MISS:     560960
cpu0_DTLB LOAD      ACCESS:    7137416  HIT:    6745039  MISS:     392377
cpu0_DTLB RFO       ACCESS:     438479  HIT:     269896  MISS:     168583
cpu0_DTLB PREFETCH  ACCESS:          0  HIT:          0  MISS:          0
cpu0_DTLB WRITEBACK ACCESS:          0  HIT:          0  MISS:          0
cpu0_DTLB TRANSLATION ACCESS:          0  HIT:          0  MISS:          0
cpu0_DTLB PREFETCH  REQUESTED:          0  ISSUED:          0  USEFUL:          0  USELESS:          0
cpu0_DTLB AVERAGE MISS LATENCY: 11.268 cycles
cpu0_ITLB TOTAL     ACCESS:    2852123  HIT:    2852123  MISS:          0
cpu0_ITLB LOAD      ACCESS:    2852123  HIT:    2852123  MISS:          0
cpu0_ITLB RFO       ACCESS:          0  HIT:          0  MISS:          0
cpu0_ITLB PREFETCH  ACCESS:          0  HIT:          0  MISS:          0
cpu0_ITLB WRITEBACK ACCESS:          0  HIT:          0  MISS:          0
cpu0_ITLB TRANSLATION ACCESS:          0  HIT:          0  MISS:          0
cpu0_ITLB PREFETCH  REQUESTED:          0  ISSUED:          0  USEFUL:          0  USELESS:          0
cpu0_ITLB AVERAGE MISS LATENCY: -nan cycles
cpu0_L1I TOTAL     ACCESS:       9553  HIT:       9553  MISS:          0
cpu0_L1I LOAD      ACCESS:       9553  HIT:       9553  MISS:          0
cpu0_L1I RFO       ACCESS:          0  HIT:          0  MISS:          0
cpu0_L1I PREFETCH  ACCESS:          0  HIT:          0  MISS:          0
cpu0_L1I WRITEBACK ACCESS:          0  HIT:          0  MISS:          0
cpu0_L1I TRANSLATION ACCESS:          0  HIT:          0  MISS:          0
cpu0_L1I PREFETCH  REQUESTED:          0  ISSUED:          0  USEFUL:          0  USELESS:          0
cpu0_L1I AVERAGE MISS LATENCY: -nan cycles
cpu0_STLB TOTAL     ACCESS:     560960  HIT:     553959  MISS:       7001
cpu0_STLB LOAD      ACCESS:     392377  HIT:     386410  MISS:       5967
cpu0_STLB RFO       ACCESS:     168583  HIT:     167549  MISS:       1034
cpu0_STLB PREFETCH  ACCESS:          0  HIT:          0  MISS:          0
cpu0_STLB WRITEBACK ACCESS:          0  HIT:          0  MISS:          0
cpu0_STLB TRANSLATION ACCESS:          0  HIT:          0  MISS:          0
cpu0_STLB PREFETCH  REQUESTED:          0  ISSUED:          0  USEFUL:          0  USELESS:          0
cpu0_STLB AVERAGE MISS LATENCY: 173.856 cycles
cpu0_L1D TOTAL     ACCESS:    6511109  HIT:    4964958  MISS:    1546151
cpu0_L1D LOAD      ACCESS:    5854997  HIT:    4436453  MISS:    1418544
cpu0_L1D RFO       ACCESS:     649149  HIT:     524085  MISS:     125064
cpu0_L1D PREFETCH  ACCESS:          0  HIT:          0  MISS:          0
cpu0_L1D WRITEBACK ACCESS:          0  HIT:          0  MISS:          0
cpu0_L1D TRANSLATION ACCESS:       6963  HIT:       4420  MISS:       2543
cpu0_L1D PREFETCH  REQUESTED:          0  ISSUED:          0  USEFUL:          0  USELESS:          0
cpu0_L1D AVERAGE MISS LATENCY: 111.126 cycles
cpu0_L2C TOTAL     ACCESS:    1921404  HIT:     729672  MISS:    1191732
cpu0_L2C LOAD      ACCESS:    1418540  HIT:     267249  MISS:    1151291
cpu0_L2C RFO       ACCESS:     125061  HIT:      86091  MISS:      38970
cpu0_L2C PREFETCH  ACCESS:          0  HIT:          0  MISS:          0
cpu0_L2C WRITEBACK ACCESS:     375260  HIT:     374378  MISS:        882
cpu0_L2C TRANSLATION ACCESS:       2543  HIT:       1954  MISS:        589
cpu0_L2C PREFETCH  REQUESTED:          0  ISSUED:          0  USEFUL:          0  USELESS:          0
cpu0_L2C AVERAGE MISS LATENCY: 129.557 cycles
LLC TOTAL     ACCESS:    1436176  HIT:     781557  MISS:     654619
LLC LOAD      ACCESS:    1151290  HIT:     525299  MISS:     625991
LLC RFO       ACCESS:      38970  HIT:      11977  MISS:      26993
LLC PREFETCH  ACCESS:          0  HIT:          0  MISS:          0
LLC WRITEBACK ACCESS:     245327  HIT:     243949  MISS:       1378
LLC TRANSLATION ACCESS:        589  HIT:        332  MISS:        257
LLC PREFETCH  REQUESTED:          0  ISSUED:          0  USEFUL:          0  USELESS:          0
LLC AVERAGE MISS LATENCY: 197.642 cycles

DRAM Statistics
 CHANNEL 0
 RQ ROW_BUFFER_HIT:      51764  ROW_BUFFER_MISS:     601164
 DBUS AVG_CONGESTED_CYCLE:    3.94027
 WQ ROW_BUFFER_HIT:      60322  ROW_BUFFER_MISS:     149512  FULL:          0


CPU 0 Branch Prediction Accuracy: 92.2424% MPKI: 11.4475 Average ROB Occupancy at Mispredict: 60.719
Branch type MPKI
BRANCH_DIRECT_JUMP: 6.66667e-05
BRANCH_INDIRECT: 0
BRANCH_CONDITIONAL: 11.4475
BRANCH_DIRECT_CALL: 0
BRANCH_INDIRECT_CALL: 0
BRANCH_RETURN: 0

