
*** ChampSim Multicore Out-of-Order Simulator ***

Warmup Instructions: 30000000
Simulation Instructions: 30000000
Number of CPUs: 1
Off-chip DRAM Size: 4 GiB Channels: 1 Width: 64-bit Data Rate: 3200 MT/s

VirtualMemory physical capacity: 8588881920 num_ppages: 2096895
VirtualMemory page size: 4096 log2_page_size: 12

CPU 0 runs ../traces/sssp-14.trace.gz
CPU 0 TAGE branch predictor
Basic BTB sets: 1024 ways: 8 indirect buffer size: 4096 RAS size: 64
Heartbeat CPU 0 instructions: 10000002 cycles: 2979350 heartbeat IPC: 3.35644 cumulative IPC: 3.35644 (Simulation time: 0 hr 0 min 17 sec) 
Heartbeat CPU 0 instructions: 20000003 cycles: 6324428 heartbeat IPC: 2.98947 cumulative IPC: 3.16234 (Simulation time: 0 hr 0 min 39 sec) 
Heartbeat CPU 0 instructions: 30000004 cycles: 9852471 heartbeat IPC: 2.83443 cumulative IPC: 3.04492 (Simulation time: 0 hr 1 min 4 sec) 

Warmup complete CPU 0 instructions: 30000004 cycles: 9852471 (Simulation time: 0 hr 1 min 4 sec) 

Heartbeat CPU 0 instructions: 40000000 cycles: 43440768 heartbeat IPC: 0.297723 cumulative IPC: 0.297723 (Simulation time: 0 hr 1 min 44 sec) 
Heartbeat CPU 0 instructions: 50000001 cycles: 74296628 heartbeat IPC: 0.324088 cumulative IPC: 0.310346 (Simulation time: 0 hr 2 min 24 sec) 
Heartbeat CPU 0 instructions: 60000004 cycles: 105340018 heartbeat IPC: 0.32213 cumulative IPC: 0.314177 (Simulation time: 0 hr 3 min 3 sec) 
Finished CPU 0 instructions: 30000000 cycles: 95487547 cumulative IPC: 0.314177 (Simulation time: 0 hr 3 min 3 sec) 

ChampSim completed all CPUs

Region of Interest Statistics

CPU 0 cumulative IPC: 0.314177 instructions: 30000000 cycles: 95487547
cpu0_DTLB TOTAL     ACCESS:    7575817  HIT:    7014838  MISS:     560979
cpu0_DTLB LOAD      ACCESS:    7137381  HIT:    6744985  MISS:     392396
cpu0_DTLB RFO       ACCESS:     438436  HIT:     269853  MISS:     168583
cpu0_DTLB PREFETCH  ACCESS:          0  HIT:          0  MISS:          0
cpu0_DTLB WRITEBACK ACCESS:          0  HIT:          0  MISS:          0
cpu0_DTLB TRANSLATION ACCESS:          0  HIT:          0  MISS:          0
cpu0_DTLB PREFETCH  REQUESTED:          0  ISSUED:          0  USEFUL:          0  USELESS:          0
cpu0_DTLB AVERAGE MISS LATENCY: 11.2659 cycles
cpu0_ITLB TOTAL     ACCESS:    2852373  HIT:    2852373  MISS:          0
cpu0_ITLB LOAD      ACCESS:    2852373  HIT:    2852373  MISS:          0
cpu0_ITLB RFO       ACCESS:          0  HIT:          0  MISS:          0
cpu0_ITLB PREFETCH  ACCESS:          0  HIT:          0  MISS:          0
cpu0_ITLB WRITEBACK ACCESS:          0  HIT:          0  MISS:          0
cpu0_ITLB TRANSLATION ACCESS:          0  HIT:          0  MISS:          0
cpu0_ITLB PREFETCH  REQUESTED:          0  ISSUED:          0  USEFUL:          0  USELESS:          0
cpu0_ITLB AVERAGE MISS LATENCY: -nan cycles
cpu0_L1I TOTAL     ACCESS:       9680  HIT:       9680  MISS:          0
cpu0_L1I LOAD      ACCESS:       9680  HIT:       9680  MISS:          0
cpu0_L1I RFO       ACCESS:          0  HIT:          0  MISS:          0
cpu0_L1I PREFETCH  ACCESS:          0  HIT:          0  MISS:          0
cpu0_L1I WRITEBACK ACCESS:          0  HIT:          0  MISS:          0
cpu0_L1I TRANSLATION ACCESS:          0  HIT:          0  MISS:          0
cpu0_L1I PREFETCH  REQUESTED:          0  ISSUED:          0  USEFUL:          0  USELESS:          0
cpu0_L1I AVERAGE MISS LATENCY: -nan cycles
cpu0_STLB TOTAL     ACCESS:     560979  HIT:     553968  MISS:       7011
cpu0_STLB LOAD      ACCESS:     392396  HIT:     386420  MISS:       5976
cpu0_STLB RFO       ACCESS:     168583  HIT:     167548  MISS:       1035
cpu0_STLB PREFETCH  ACCESS:          0  HIT:          0  MISS:          0
cpu0_STLB WRITEBACK ACCESS:          0  HIT:          0  MISS:          0
cpu0_STLB TRANSLATION ACCESS:          0  HIT:          0  MISS:          0
cpu0_STLB PREFETCH  REQUESTED:          0  ISSUED:          0  USEFUL:          0  USELESS:          0
cpu0_STLB AVERAGE MISS LATENCY: 173.449 cycles
cpu0_L1D TOTAL     ACCESS:    6511168  HIT:    4965012  MISS:    1546156
cpu0_L1D LOAD      ACCESS:    5855030  HIT:    4436486  MISS:    1418544
cpu0_L1D RFO       ACCESS:     649164  HIT:     524101  MISS:     125063
cpu0_L1D PREFETCH  ACCESS:          0  HIT:          0  MISS:          0
cpu0_L1D WRITEBACK ACCESS:          0  HIT:          0  MISS:          0
cpu0_L1D TRANSLATION ACCESS:       6974  HIT:       4425  MISS:       2549
cpu0_L1D PREFETCH  REQUESTED:          0  ISSUED:          0  USEFUL:          0  USELESS:          0
cpu0_L1D AVERAGE MISS LATENCY: 111.223 cycles
cpu0_L2C TOTAL     ACCESS:    1921409  HIT:     729676  MISS:    1191733
cpu0_L2C LOAD      ACCESS:    1418540  HIT:     267248  MISS:    1151292
cpu0_L2C RFO       ACCESS:     125060  HIT:      86090  MISS:      38970
cpu0_L2C PREFETCH  ACCESS:          0  HIT:          0  MISS:          0
cpu0_L2C WRITEBACK ACCESS:     375260  HIT:     374378  MISS:        882
cpu0_L2C TRANSLATION ACCESS:       2549  HIT:       1960  MISS:        589
cpu0_L2C PREFETCH  REQUESTED:          0  ISSUED:          0  USEFUL:          0  USELESS:          0
cpu0_L2C AVERAGE MISS LATENCY: 129.682 cycles
LLC TOTAL     ACCESS:    1436177  HIT:     781561  MISS:     654616
LLC LOAD      ACCESS:    1151291  HIT:     525301  MISS:     625990
LLC RFO       ACCESS:      38970  HIT:      11977  MISS:      26993
LLC PREFETCH  ACCESS:          0  HIT:          0  MISS:          0
LLC WRITEBACK ACCESS:     245327  HIT:     243949  MISS:       1378
LLC TRANSLATION ACCESS:        589  HIT:        334  MISS:        255
LLC PREFETCH  REQUESTED:          0  ISSUED:          0  USEFUL:          0  USELESS:          0
LLC AVERAGE MISS LATENCY: 197.872 cycles

DRAM Statistics
 CHANNEL 0
 RQ ROW_BUFFER_HIT:      51464  ROW_BUFFER_MISS:     601479
 DBUS AVG_CONGESTED_CYCLE:    3.94028
 WQ ROW_BUFFER_HIT:      59720  ROW_BUFFER_MISS:     150114  FULL:          0


CPU 0 Branch Prediction Accuracy: 92.2405% MPKI: 11.4503 Average ROB Occupancy at Mispredict: 60.7291
Branch type MPKI
BRANCH_DIRECT_JUMP: 6.66667e-05
BRANCH_INDIRECT: 0
BRANCH_CONDITIONAL: 11.4503
BRANCH_DIRECT_CALL: 0
BRANCH_INDIRECT_CALL: 0
BRANCH_RETURN: 0

