
*** ChampSim Multicore Out-of-Order Simulator ***

Warmup Instructions: 30000000
Simulation Instructions: 30000000
Number of CPUs: 1
Off-chip DRAM Size: 4 GiB Channels: 1 Width: 64-bit Data Rate: 3200 MT/s

VirtualMemory physical capacity: 8588881920 num_ppages: 2096895
VirtualMemory page size: 4096 log2_page_size: 12

CPU 0 runs ../traces/sssp-14.trace.gz
CPU 0 TAGE branch predictor
Basic BTB sets: 1024 ways: 8 indirect buffer size: 4096 RAS size: 64
Heartbeat CPU 0 instructions: 10000002 cycles: 2979354 heartbeat IPC: 3.35643 cumulative IPC: 3.35643 (Simulation time: 0 hr 0 min 18 sec) 
Heartbeat CPU 0 instructions: 20000003 cycles: 6324432 heartbeat IPC: 2.98947 cumulative IPC: 3.16234 (Simulation time: 0 hr 0 min 40 sec) 
Heartbeat CPU 0 instructions: 30000004 cycles: 9852475 heartbeat IPC: 2.83443 cumulative IPC: 3.04492 (Simulation time: 0 hr 1 min 4 sec) 

Warmup complete CPU 0 instructions: 30000004 cycles: 9852475 (Simulation time: 0 hr 1 min 4 sec) 

Heartbeat CPU 0 instructions: 40000000 cycles: 43444938 heartbeat IPC: 0.297686 cumulative IPC: 0.297686 (Simulation time: 0 hr 1 min 43 sec) 
Heartbeat CPU 0 instructions: 50000001 cycles: 74300543 heartbeat IPC: 0.32409 cumulative IPC: 0.310327 (Simulation time: 0 hr 2 min 24 sec) 
Heartbeat CPU 0 instructions: 60000004 cycles: 105347748 heartbeat IPC: 0.32209 cumulative IPC: 0.314152 (Simulation time: 0 hr 3 min 2 sec) 
Finished CPU 0 instructions: 30000000 cycles: 95495273 cumulative IPC: 0.314152 (Simulation time: 0 hr 3 min 2 sec) 

ChampSim completed all CPUs

Region of Interest Statistics

CPU 0 cumulative IPC: 0.314152 instructions: 30000000 cycles: 95495273
cpu0_DTLB TOTAL     ACCESS:    7576879  HIT:    7015902  MISS:     560977
cpu0_DTLB LOAD      ACCESS:    7138432  HIT:    6746053  MISS:     392379
cpu0_DTLB RFO       ACCESS:     438447  HIT:     269849  MISS:     168598
cpu0_DTLB PREFETCH  ACCESS:          0  HIT:          0  MISS:          0
cpu0_DTLB WRITEBACK ACCESS:          0  HIT:          0  MISS:          0
cpu0_DTLB TRANSLATION ACCESS:          0  HIT:          0  MISS:          0
cpu0_DTLB PREFETCH  REQUESTED:          0  ISSUED:          0  USEFUL:          0  USELESS:          0
cpu0_DTLB AVERAGE MISS LATENCY: 11.2715 cycles
cpu0_ITLB TOTAL     ACCESS:    2852106  HIT:    2852106  MISS:          0
cpu0_ITLB LOAD      ACCESS:    2852106  HIT:    2852106  MISS:          0
cpu0_ITLB RFO       ACCESS:          0  HIT:          0  MISS:          0
cpu0_ITLB PREFETCH  ACCESS:          0  HIT:          0  MISS:          0
cpu0_ITLB WRITEBACK ACCESS:          0  HIT:          0  MISS:          0
cpu0_ITLB TRANSLATION ACCESS:          0  HIT:          0  MISS:          0
cpu0_ITLB PREFETCH  REQUESTED:          0  ISSUED:          0  USEFUL:          0  USELESS:          0
cpu0_ITLB AVERAGE MISS LATENCY: -nan cycles
cpu0_L1I TOTAL     ACCESS:       9683  HIT:       9683  MISS:          0
cpu0_L1I LOAD      ACCESS:       9683  HIT:       9683  MISS:          0
cpu0_L1I RFO       ACCESS:          0  HIT:          0  MISS:          0
cpu0_L1I PREFETCH  ACCESS:          0  HIT:          0  MISS:          0
cpu0_L1I WRITEBACK ACCESS:          0  HIT:          0  MISS:          0
cpu0_L1I TRANSLATION ACCESS:          0  HIT:          0  MISS:          0
cpu0_L1I PREFETCH  REQUESTED:          0  ISSUED:          0  USEFUL:          0  USELESS:          0
cpu0_L1I AVERAGE MISS LATENCY: -nan cycles
cpu0_STLB TOTAL     ACCESS:     560977  HIT:     553965  MISS:       7012
cpu0_STLB LOAD      ACCESS:     392379  HIT:     386402  MISS:       5977
cpu0_STLB RFO       ACCESS:     168598  HIT:     167563  MISS:       1035
cpu0_STLB PREFETCH  ACCESS:          0  HIT:          0  MISS:          0
cpu0_STLB WRITEBACK ACCESS:          0  HIT:          0  MISS:          0
cpu0_STLB TRANSLATION ACCESS:          0  HIT:          0  MISS:          0
cpu0_STLB PREFETCH  REQUESTED:          0  ISSUED:          0  USEFUL:          0  USELESS:          0
cpu0_STLB AVERAGE MISS LATENCY: 173.868 cycles
cpu0_L1D TOTAL     ACCESS:    6511614  HIT:    4965459  MISS:    1546155
cpu0_L1D LOAD      ACCESS:    5855484  HIT:    4436941  MISS:    1418543
cpu0_L1D RFO       ACCESS:     649155  HIT:     524092  MISS:     125063
cpu0_L1D PREFETCH  ACCESS:          0  HIT:          0  MISS:          0
cpu0_L1D WRITEBACK ACCESS:          0  HIT:          0  MISS:          0
cpu0_L1D TRANSLATION ACCESS:       6975  HIT:       4426  MISS:       2549
cpu0_L1D PREFETCH  REQUESTED:          0  ISSUED:          0  USEFUL:          0  USELESS:          0
cpu0_L1D AVERAGE MISS LATENCY: 111.158 cycles
cpu0_L2C TOTAL     ACCESS:    1921408  HIT:     729675  MISS:    1191733
cpu0_L2C LOAD      ACCESS:    1418539  HIT:     267247  MISS:    1151292
cpu0_L2C RFO       ACCESS:     125060  HIT:      86090  MISS:      38970
cpu0_L2C PREFETCH  ACCESS:          0  HIT:          0  MISS:          0
cpu0_L2C WRITEBACK ACCESS:     375260  HIT:     374378  MISS:        882
cpu0_L2C TRANSLATION ACCESS:       2549  HIT:       1960  MISS:        589
cpu0_L2C PREFETCH  REQUESTED:          0  ISSUED:          0  USEFUL:          0  USELESS:          0
cpu0_L2C AVERAGE MISS LATENCY: 129.599 cycles
LLC TOTAL     ACCESS:    1436177  HIT:     781561  MISS:     654616
LLC LOAD      ACCESS:    1151291  HIT:     525301  MISS:     625990
LLC RFO       ACCESS:      38970  HIT:      11977  MISS:      26993
LLC PREFETCH  ACCESS:          0  HIT:          0  MISS:          0
LLC WRITEBACK ACCESS:     245327  HIT:     243949  MISS:       1378
LLC TRANSLATION ACCESS:        589  HIT:        334  MISS:        255
LLC PREFETCH  REQUESTED:          0  ISSUED:          0  USEFUL:          0  USELESS:          0
LLC AVERAGE MISS LATENCY: 197.719 cycles

DRAM Statistics
 CHANNEL 0
 RQ ROW_BUFFER_HIT:      51615  ROW_BUFFER_MISS:     601325
 DBUS AVG_CONGESTED_CYCLE:    3.93992
 WQ ROW_BUFFER_HIT:      60231  ROW_BUFFER_MISS:     149603  FULL:          0


CPU 0 Branch Prediction Accuracy: 92.2396% MPKI: 11.4516 Average ROB Occupancy at Mispredict: 60.7
Branch type MPKI
BRANCH_DIRECT_JUMP: 6.66667e-05
BRANCH_INDIRECT: 0
BRANCH_CONDITIONAL: 11.4516
BRANCH_DIRECT_CALL: 0
BRANCH_INDIRECT_CALL: 0
BRANCH_RETURN: 0

