
*** ChampSim Multicore Out-of-Order Simulator ***

Warmup Instructions: 30000000
Simulation Instructions: 30000000
Number of CPUs: 1
Off-chip DRAM Size: 4 GiB Channels: 1 Width: 64-bit Data Rate: 3200 MT/s

VirtualMemory physical capacity: 8588881920 num_ppages: 2096895
VirtualMemory page size: 4096 log2_page_size: 12

CPU 0 runs ../traces/cc-14.trace.gz
CPU 0 TAGE branch predictor
Basic BTB sets: 1024 ways: 8 indirect buffer size: 4096 RAS size: 64
Heartbeat CPU 0 instructions: 10000004 cycles: 2519559 heartbeat IPC: 3.96895 cumulative IPC: 3.96895 (Simulation time: 0 hr 0 min 14 sec) 
Heartbeat CPU 0 instructions: 20000004 cycles: 5135390 heartbeat IPC: 3.82288 cumulative IPC: 3.89454 (Simulation time: 0 hr 0 min 32 sec) 
Heartbeat CPU 0 instructions: 30000000 cycles: 7782270 heartbeat IPC: 3.77803 cumulative IPC: 3.85492 (Simulation time: 0 hr 0 min 52 sec) 

Warmup complete CPU 0 instructions: 30000004 cycles: 7782271 (Simulation time: 0 hr 0 min 52 sec) 

Heartbeat CPU 0 instructions: 40000000 cycles: 48451380 heartbeat IPC: 0.245887 cumulative IPC: 0.245887 (Simulation time: 0 hr 1 min 34 sec) 
Heartbeat CPU 0 instructions: 50000004 cycles: 88176847 heartbeat IPC: 0.251728 cumulative IPC: 0.248773 (Simulation time: 0 hr 2 min 17 sec) 
Heartbeat CPU 0 instructions: 60000000 cycles: 127231007 heartbeat IPC: 0.256055 cumulative IPC: 0.251154 (Simulation time: 0 hr 2 min 57 sec) 
Finished CPU 0 instructions: 30000001 cycles: 119448737 cumulative IPC: 0.251154 (Simulation time: 0 hr 2 min 57 sec) 

ChampSim completed all CPUs

Region of Interest Statistics

CPU 0 cumulative IPC: 0.251154 instructions: 30000001 cycles: 119448737
cpu0_DTLB TOTAL     ACCESS:    7581214  HIT:    6170138  MISS:    1411076
cpu0_DTLB LOAD      ACCESS:    7477195  HIT:    6066119  MISS:    1411076
cpu0_DTLB RFO       ACCESS:     104019  HIT:     104019  MISS:          0
cpu0_DTLB PREFETCH  ACCESS:          0  HIT:          0  MISS:          0
cpu0_DTLB WRITEBACK ACCESS:          0  HIT:          0  MISS:          0
cpu0_DTLB TRANSLATION ACCESS:          0  HIT:          0  MISS:          0
cpu0_DTLB PREFETCH  REQUESTED:          0  ISSUED:          0  USEFUL:          0  USELESS:          0
cpu0_DTLB AVERAGE MISS LATENCY: 9.7983 cycles
cpu0_ITLB TOTAL     ACCESS:    3043272  HIT:    3043272  MISS:          0
cpu0_ITLB LOAD      ACCESS:    3043272  HIT:    3043272  MISS:          0
cpu0_ITLB RFO       ACCESS:          0  HIT:          0  MISS:          0
cpu0_ITLB PREFETCH  ACCESS:          0  HIT:          0  MISS:          0
cpu0_ITLB WRITEBACK ACCESS:          0  HIT:          0  MISS:          0
cpu0_ITLB TRANSLATION ACCESS:          0  HIT:          0  MISS:          0
cpu0_ITLB PREFETCH  REQUESTED:          0  ISSUED:          0  USEFUL:          0  USELESS:          0
cpu0_ITLB AVERAGE MISS LATENCY: -nan cycles
cpu0_STLB TOTAL     ACCESS:    1411076  HIT:    1408924  MISS:       2152
cpu0_STLB LOAD      ACCESS:    1411076  HIT:    1408924  MISS:       2152
cpu0_STLB RFO       ACCESS:          0  HIT:          0  MISS:          0
cpu0_STLB PREFETCH  ACCESS:          0  HIT:          0  MISS:          0
cpu0_STLB WRITEBACK ACCESS:          0  HIT:          0  MISS:          0
cpu0_STLB TRANSLATION ACCESS:          0  HIT:          0  MISS:          0
cpu0_STLB PREFETCH  REQUESTED:          0  ISSUED:          0  USEFUL:          0  USELESS:          0
cpu0_STLB AVERAGE MISS LATENCY: 218.997 cycles
cpu0_L1D TOTAL     ACCESS:    6265339  HIT:    4071921  MISS:    2193418
cpu0_L1D LOAD      ACCESS:    6158823  HIT:    3967352  MISS:    2191471
cpu0_L1D RFO       ACCESS:     104364  HIT:     104364  MISS:          0
cpu0_L1D PREFETCH  ACCESS:          0  HIT:          0  MISS:          0
cpu0_L1D WRITEBACK ACCESS:          0  HIT:          0  MISS:          0
cpu0_L1D TRANSLATION ACCESS:       2152  HIT:        205  MISS:       1947
cpu0_L1D PREFETCH  REQUESTED:          0  ISSUED:          0  USEFUL:          0  USELESS:          0
cpu0_L1D AVERAGE MISS LATENCY: 84.0871 cycles
cpu0_L2C TOTAL     ACCESS:    2280768  HIT:     748051  MISS:    1532717
cpu0_L2C LOAD      ACCESS:    2191471  HIT:     658889  MISS:    1532582
cpu0_L2C RFO       ACCESS:          0  HIT:          0  MISS:          0
cpu0_L2C PREFETCH  ACCESS:          0  HIT:          0  MISS:          0
cpu0_L2C WRITEBACK ACCESS:      87350  HIT:      87321  MISS:         29
cpu0_L2C TRANSLATION ACCESS:       1947  HIT:       1841  MISS:        106
cpu0_L2C PREFETCH  REQUESTED:          0  ISSUED:          0  USEFUL:          0  USELESS:          0
cpu0_L2C AVERAGE MISS LATENCY: 104.213 cycles
LLC TOTAL     ACCESS:    1619836  HIT:     941671  MISS:     678165
LLC LOAD      ACCESS:    1532581  HIT:     854661  MISS:     677920
LLC RFO       ACCESS:          0  HIT:          0  MISS:          0
LLC PREFETCH  ACCESS:          0  HIT:          0  MISS:          0
LLC WRITEBACK ACCESS:      87149  HIT:      86904  MISS:        245
LLC TRANSLATION ACCESS:        106  HIT:        106  MISS:          0
LLC PREFETCH  REQUESTED:          0  ISSUED:          0  USEFUL:          0  USELESS:          0
LLC AVERAGE MISS LATENCY: 188.071 cycles

DRAM Statistics
 CHANNEL 0
 RQ ROW_BUFFER_HIT:      18575  ROW_BUFFER_MISS:     659289
 DBUS AVG_CONGESTED_CYCLE:    3.72277
 WQ ROW_BUFFER_HIT:      46613  ROW_BUFFER_MISS:      37481  FULL:          0


CPU 0 Branch Prediction Accuracy: 89.7983% MPKI: 20.4317 Average ROB Occupancy at Mispredict: 28.3999
Branch type MPKI
BRANCH_DIRECT_JUMP: 0
BRANCH_INDIRECT: 0
BRANCH_CONDITIONAL: 20.4317
BRANCH_DIRECT_CALL: 0
BRANCH_INDIRECT_CALL: 0
BRANCH_RETURN: 0

