
*** ChampSim Multicore Out-of-Order Simulator ***

Warmup Instructions: 30000000
Simulation Instructions: 30000000
Number of CPUs: 1
Off-chip DRAM Size: 4 GiB Channels: 1 Width: 64-bit Data Rate: 3200 MT/s

VirtualMemory physical capacity: 8588881920 num_ppages: 2096895
VirtualMemory page size: 4096 log2_page_size: 12

CPU 0 runs ../traces/bc-5.trace.gz
CPU 0 TAGE branch predictor
Basic BTB sets: 1024 ways: 8 indirect buffer size: 4096 RAS size: 64
Heartbeat CPU 0 instructions: 10000001 cycles: 3320952 heartbeat IPC: 3.01118 cumulative IPC: 3.01118 (Simulation time: 0 hr 0 min 23 sec) 
Heartbeat CPU 0 instructions: 20000003 cycles: 6147678 heartbeat IPC: 3.53766 cumulative IPC: 3.25326 (Simulation time: 0 hr 0 min 43 sec) 
Heartbeat CPU 0 instructions: 30000001 cycles: 8982871 heartbeat IPC: 3.5271 cumulative IPC: 3.33969 (Simulation time: 0 hr 1 min 5 sec) 

Warmup complete CPU 0 instructions: 30000001 cycles: 8982871 (Simulation time: 0 hr 1 min 5 sec) 

Heartbeat CPU 0 instructions: 40000003 cycles: 60691274 heartbeat IPC: 0.193392 cumulative IPC: 0.193392 (Simulation time: 0 hr 2 min 12 sec) 
Heartbeat CPU 0 instructions: 50000000 cycles: 108556671 heartbeat IPC: 0.208919 cumulative IPC: 0.200856 (Simulation time: 0 hr 3 min 11 sec) 
Heartbeat CPU 0 instructions: 60000000 cycles: 156848470 heartbeat IPC: 0.207074 cumulative IPC: 0.202887 (Simulation time: 0 hr 4 min 2 sec) 
Finished CPU 0 instructions: 30000004 cycles: 147865600 cumulative IPC: 0.202887 (Simulation time: 0 hr 4 min 2 sec) 

ChampSim completed all CPUs

Region of Interest Statistics

CPU 0 cumulative IPC: 0.202887 instructions: 30000004 cycles: 147865600
cpu0_DTLB TOTAL     ACCESS:    7246650  HIT:    6562865  MISS:     683785
cpu0_DTLB LOAD      ACCESS:    5428255  HIT:    4985184  MISS:     443071
cpu0_DTLB RFO       ACCESS:    1818395  HIT:    1577681  MISS:     240714
cpu0_DTLB PREFETCH  ACCESS:          0  HIT:          0  MISS:          0
cpu0_DTLB WRITEBACK ACCESS:          0  HIT:          0  MISS:          0
cpu0_DTLB TRANSLATION ACCESS:          0  HIT:          0  MISS:          0
cpu0_DTLB PREFETCH  REQUESTED:          0  ISSUED:          0  USEFUL:          0  USELESS:          0
cpu0_DTLB AVERAGE MISS LATENCY: 16.1596 cycles
cpu0_ITLB TOTAL     ACCESS:    2609729  HIT:    2609729  MISS:          0
cpu0_ITLB LOAD      ACCESS:    2609729  HIT:    2609729  MISS:          0
cpu0_ITLB RFO       ACCESS:          0  HIT:          0  MISS:          0
cpu0_ITLB PREFETCH  ACCESS:          0  HIT:          0  MISS:          0
cpu0_ITLB WRITEBACK ACCESS:          0  HIT:          0  MISS:          0
cpu0_ITLB TRANSLATION ACCESS:          0  HIT:          0  MISS:          0
cpu0_ITLB PREFETCH  REQUESTED:          0  ISSUED:          0  USEFUL:          0  USELESS:          0
cpu0_ITLB AVERAGE MISS LATENCY: -nan cycles
cpu0_L1I TOTAL     ACCESS:        102  HIT:        102  MISS:          0
cpu0_L1I LOAD      ACCESS:        102  HIT:        102  MISS:          0
cpu0_L1I RFO       ACCESS:          0  HIT:          0  MISS:          0
cpu0_L1I PREFETCH  ACCESS:          0  HIT:          0  MISS:          0
cpu0_L1I WRITEBACK ACCESS:          0  HIT:          0  MISS:          0
cpu0_L1I TRANSLATION ACCESS:          0  HIT:          0  MISS:          0
cpu0_L1I PREFETCH  REQUESTED:          0  ISSUED:          0  USEFUL:          0  USELESS:          0
cpu0_L1I AVERAGE MISS LATENCY: -nan cycles
cpu0_STLB TOTAL     ACCESS:     683785  HIT:     262073  MISS:     421712
cpu0_STLB LOAD      ACCESS:     443071  HIT:     175287  MISS:     267784
cpu0_STLB RFO       ACCESS:     240714  HIT:      86786  MISS:     153928
cpu0_STLB PREFETCH  ACCESS:          0  HIT:          0  MISS:          0
cpu0_STLB WRITEBACK ACCESS:          0  HIT:          0  MISS:          0
cpu0_STLB TRANSLATION ACCESS:          0  HIT:          0  MISS:          0
cpu0_STLB PREFETCH  REQUESTED:          0  ISSUED:          0  USEFUL:          0  USELESS:          0
cpu0_STLB AVERAGE MISS LATENCY: 11.4078 cycles
cpu0_L1D TOTAL     ACCESS:    8733777  HIT:    6371409  MISS:    2362368
cpu0_L1D LOAD      ACCESS:    6015123  HIT:    3666083  MISS:    2349040
cpu0_L1D RFO       ACCESS:    2339196  HIT:    2327225  MISS:      11971
cpu0_L1D PREFETCH  ACCESS:          0  HIT:          0  MISS:          0
cpu0_L1D WRITEBACK ACCESS:          0  HIT:          0  MISS:          0
cpu0_L1D TRANSLATION ACCESS:     379458  HIT:     378101  MISS:       1357
cpu0_L1D PREFETCH  REQUESTED:          0  ISSUED:          0  USEFUL:          0  USELESS:          0
cpu0_L1D AVERAGE MISS LATENCY: 288.458 cycles
cpu0_L2C TOTAL     ACCESS:    3522137  HIT:    1341982  MISS:    2180155
cpu0_L2C LOAD      ACCESS:    2349040  HIT:     180839  MISS:    2168201
cpu0_L2C RFO       ACCESS:      11971  HIT:         75  MISS:      11896
cpu0_L2C PREFETCH  ACCESS:          0  HIT:          0  MISS:          0
cpu0_L2C WRITEBACK ACCESS:    1159769  HIT:    1159753  MISS:         16
cpu0_L2C TRANSLATION ACCESS:       1357  HIT:       1315  MISS:         42
cpu0_L2C PREFETCH  REQUESTED:          0  ISSUED:          0  USEFUL:          0  USELESS:          0
cpu0_L2C AVERAGE MISS LATENCY: 300.191 cycles
LLC TOTAL     ACCESS:    3273564  HIT:    1820571  MISS:    1452993
LLC LOAD      ACCESS:    2168190  HIT:     726717  MISS:    1441473
LLC RFO       ACCESS:      11896  HIT:        519  MISS:      11377
LLC PREFETCH  ACCESS:          0  HIT:          0  MISS:          0
LLC WRITEBACK ACCESS:    1093436  HIT:    1093331  MISS:        105
LLC TRANSLATION ACCESS:         42  HIT:          4  MISS:         38
LLC PREFETCH  REQUESTED:          0  ISSUED:          0  USEFUL:          0  USELESS:          0
LLC AVERAGE MISS LATENCY: 418.913 cycles

DRAM Statistics
 CHANNEL 0
 RQ ROW_BUFFER_HIT:     132728  ROW_BUFFER_MISS:    1318815
 DBUS AVG_CONGESTED_CYCLE:    3.97707
 WQ ROW_BUFFER_HIT:       1828  ROW_BUFFER_MISS:     767216  FULL:          0


CPU 0 Branch Prediction Accuracy: 91.6171% MPKI: 11.3437 Average ROB Occupancy at Mispredict: 81.271
Branch type MPKI
BRANCH_DIRECT_JUMP: 0
BRANCH_INDIRECT: 0
BRANCH_CONDITIONAL: 11.3437
BRANCH_DIRECT_CALL: 0
BRANCH_INDIRECT_CALL: 0
BRANCH_RETURN: 0

