
*** ChampSim Multicore Out-of-Order Simulator ***

Warmup Instructions: 30000000
Simulation Instructions: 30000000
Number of CPUs: 1
Off-chip DRAM Size: 4 GiB Channels: 1 Width: 64-bit Data Rate: 3200 MT/s

VirtualMemory physical capacity: 8588881920 num_ppages: 2096895
VirtualMemory page size: 4096 log2_page_size: 12

CPU 0 runs ../traces/bc-5.trace.gz
CPU 0 TAGE branch predictor
Basic BTB sets: 1024 ways: 8 indirect buffer size: 4096 RAS size: 64
Heartbeat CPU 0 instructions: 10000001 cycles: 3320952 heartbeat IPC: 3.01118 cumulative IPC: 3.01118 (Simulation time: 0 hr 0 min 22 sec) 
Heartbeat CPU 0 instructions: 20000003 cycles: 6147678 heartbeat IPC: 3.53766 cumulative IPC: 3.25326 (Simulation time: 0 hr 0 min 43 sec) 
Heartbeat CPU 0 instructions: 30000001 cycles: 8982871 heartbeat IPC: 3.5271 cumulative IPC: 3.33969 (Simulation time: 0 hr 1 min 5 sec) 

Warmup complete CPU 0 instructions: 30000001 cycles: 8982871 (Simulation time: 0 hr 1 min 5 sec) 

Heartbeat CPU 0 instructions: 40000003 cycles: 60360177 heartbeat IPC: 0.194639 cumulative IPC: 0.194639 (Simulation time: 0 hr 2 min 12 sec) 
Heartbeat CPU 0 instructions: 50000000 cycles: 108067357 heartbeat IPC: 0.209612 cumulative IPC: 0.201848 (Simulation time: 0 hr 3 min 13 sec) 
Heartbeat CPU 0 instructions: 60000000 cycles: 156251890 heartbeat IPC: 0.207535 cumulative IPC: 0.203709 (Simulation time: 0 hr 4 min 7 sec) 
Finished CPU 0 instructions: 30000004 cycles: 147269020 cumulative IPC: 0.203709 (Simulation time: 0 hr 4 min 7 sec) 

ChampSim completed all CPUs

Region of Interest Statistics

CPU 0 cumulative IPC: 0.203709 instructions: 30000004 cycles: 147269020
cpu0_DTLB TOTAL     ACCESS:    7235139  HIT:    6551354  MISS:     683785
cpu0_DTLB LOAD      ACCESS:    5423938  HIT:    4980172  MISS:     443766
cpu0_DTLB RFO       ACCESS:    1811201  HIT:    1571182  MISS:     240019
cpu0_DTLB PREFETCH  ACCESS:          0  HIT:          0  MISS:          0
cpu0_DTLB WRITEBACK ACCESS:          0  HIT:          0  MISS:          0
cpu0_DTLB TRANSLATION ACCESS:          0  HIT:          0  MISS:          0
cpu0_DTLB PREFETCH  REQUESTED:          0  ISSUED:          0  USEFUL:          0  USELESS:          0
cpu0_DTLB AVERAGE MISS LATENCY: 16.1948 cycles
cpu0_ITLB TOTAL     ACCESS:    2607835  HIT:    2607835  MISS:          0
cpu0_ITLB LOAD      ACCESS:    2607835  HIT:    2607835  MISS:          0
cpu0_ITLB RFO       ACCESS:          0  HIT:          0  MISS:          0
cpu0_ITLB PREFETCH  ACCESS:          0  HIT:          0  MISS:          0
cpu0_ITLB WRITEBACK ACCESS:          0  HIT:          0  MISS:          0
cpu0_ITLB TRANSLATION ACCESS:          0  HIT:          0  MISS:          0
cpu0_ITLB PREFETCH  REQUESTED:          0  ISSUED:          0  USEFUL:          0  USELESS:          0
cpu0_ITLB AVERAGE MISS LATENCY: -nan cycles
cpu0_L1I TOTAL     ACCESS:        102  HIT:        102  MISS:          0
cpu0_L1I LOAD      ACCESS:        102  HIT:        102  MISS:          0
cpu0_L1I RFO       ACCESS:          0  HIT:          0  MISS:          0
cpu0_L1I PREFETCH  ACCESS:          0  HIT:          0  MISS:          0
cpu0_L1I WRITEBACK ACCESS:          0  HIT:          0  MISS:          0
cpu0_L1I TRANSLATION ACCESS:          0  HIT:          0  MISS:          0
cpu0_L1I PREFETCH  REQUESTED:          0  ISSUED:          0  USEFUL:          0  USELESS:          0
cpu0_L1I AVERAGE MISS LATENCY: -nan cycles
cpu0_STLB TOTAL     ACCESS:     683785  HIT:     262072  MISS:     421713
cpu0_STLB LOAD      ACCESS:     443766  HIT:     175538  MISS:     268228
cpu0_STLB RFO       ACCESS:     240019  HIT:      86534  MISS:     153485
cpu0_STLB PREFETCH  ACCESS:          0  HIT:          0  MISS:          0
cpu0_STLB WRITEBACK ACCESS:          0  HIT:          0  MISS:          0
cpu0_STLB TRANSLATION ACCESS:          0  HIT:          0  MISS:          0
cpu0_STLB PREFETCH  REQUESTED:          0  ISSUED:          0  USEFUL:          0  USELESS:          0
cpu0_STLB AVERAGE MISS LATENCY: 11.4633 cycles
cpu0_L1D TOTAL     ACCESS:    8722823  HIT:    6360454  MISS:    2362369
cpu0_L1D LOAD      ACCESS:    6005804  HIT:    3656765  MISS:    2349039
cpu0_L1D RFO       ACCESS:    2337937  HIT:    2325966  MISS:      11971
cpu0_L1D PREFETCH  ACCESS:          0  HIT:          0  MISS:          0
cpu0_L1D WRITEBACK ACCESS:          0  HIT:          0  MISS:          0
cpu0_L1D TRANSLATION ACCESS:     379082  HIT:     377723  MISS:       1359
cpu0_L1D PREFETCH  REQUESTED:          0  ISSUED:          0  USEFUL:          0  USELESS:          0
cpu0_L1D AVERAGE MISS LATENCY: 290.5 cycles
cpu0_L2C TOTAL     ACCESS:    3522138  HIT:    1341982  MISS:    2180156
cpu0_L2C LOAD      ACCESS:    2349039  HIT:     180838  MISS:    2168201
cpu0_L2C RFO       ACCESS:      11971  HIT:         75  MISS:      11896
cpu0_L2C PREFETCH  ACCESS:          0  HIT:          0  MISS:          0
cpu0_L2C WRITEBACK ACCESS:    1159769  HIT:    1159753  MISS:         16
cpu0_L2C TRANSLATION ACCESS:       1359  HIT:       1316  MISS:         43
cpu0_L2C PREFETCH  REQUESTED:          0  ISSUED:          0  USEFUL:          0  USELESS:          0
cpu0_L2C AVERAGE MISS LATENCY: 302.4 cycles
LLC TOTAL     ACCESS:    3273566  HIT:    1820577  MISS:    1452989
LLC LOAD      ACCESS:    2168189  HIT:     726719  MISS:    1441470
LLC RFO       ACCESS:      11896  HIT:        519  MISS:      11377
LLC PREFETCH  ACCESS:          0  HIT:          0  MISS:          0
LLC WRITEBACK ACCESS:    1093438  HIT:    1093333  MISS:        105
LLC TRANSLATION ACCESS:         43  HIT:          6  MISS:         37
LLC PREFETCH  REQUESTED:          0  ISSUED:          0  USEFUL:          0  USELESS:          0
LLC AVERAGE MISS LATENCY: 422.229 cycles

DRAM Statistics
 CHANNEL 0
 RQ ROW_BUFFER_HIT:     133779  ROW_BUFFER_MISS:    1317757
 DBUS AVG_CONGESTED_CYCLE:    3.97735
 WQ ROW_BUFFER_HIT:       1801  ROW_BUFFER_MISS:     767243  FULL:          0


CPU 0 Branch Prediction Accuracy: 91.7443% MPKI: 11.1716 Average ROB Occupancy at Mispredict: 82.5107
Branch type MPKI
BRANCH_DIRECT_JUMP: 0
BRANCH_INDIRECT: 0
BRANCH_CONDITIONAL: 11.1716
BRANCH_DIRECT_CALL: 0
BRANCH_INDIRECT_CALL: 0
BRANCH_RETURN: 0

